MODEL 1
REMARK VINA RESULT:   -10.803      0.000      0.000
REMARK INTER + INTRA:          62.740
REMARK INTER:                 -15.223
REMARK INTRA:                  77.963
REMARK UNBOUND:                77.963
REMARK  Name = 24873435
REMARK  13 active torsions:
REMARK  status: ('A' for Active; 'I' for Inactive)
REMARK    1  A    between atoms: S_1  and  N_11
REMARK    2  A    between atoms: S_1  and  C_21
REMARK    3  A    between atoms: O_4  and  C_28
REMARK    4  A    between atoms: O_4  and  C_35
REMARK    5  A    between atoms: O_9  and  C_44
REMARK    6  A    between atoms: O_9  and  C_50
REMARK    7  A    between atoms: N_12  and  C_36
REMARK    8  A    between atoms: C_15  and  C_18
REMARK    9  A    between atoms: C_40  and  C_45
REMARK   10  A    between atoms: C_42  and  C_46
REMARK   11  A    between atoms: C_47  and  C_49
REMARK   12  A    between atoms: C_49  and  C_51
REMARK   13  A    between atoms: C_49  and  C_52
REMARK                            x       y       z     vdW  Elec       q    Type
REMARK                         _______ _______ _______ _____ _____    ______ ____
ROOT
ATOM      5  O   UNL     1       7.194  13.555  24.375  0.00  0.00    +0.000 OA
ATOM      8  O   UNL     1       7.764  14.933  23.147  0.00  0.00    +0.000 OA
ATOM     10  N   UNL     1       8.536  14.806  23.771  0.00  0.00    +0.000 N 
ATOM     12  N   UNL     1       7.880  16.279  21.672  0.00  0.00    +0.000 N 
ATOM     15  C   UNL     1       8.594  15.480  23.034  0.00  0.00    +0.000 C 
ATOM     16  C   UNL     1       9.423  16.027  22.920  0.00  0.00    +0.000 C 
ATOM     17  C   UNL     1       8.651  16.153  22.296  0.00  0.00    +0.000 C 
ATOM     19  C   UNL     1       6.935  14.386  23.260  0.00  0.00    +0.000 C 
ATOM     20  C   UNL     1      10.195  15.900  23.544  0.00  0.00    +0.000 C 
ATOM     22  C   UNL     1       6.992  15.059  22.522  0.00  0.00    +0.000 C 
ATOM     23  C   UNL     1       7.706  14.260  23.884  0.00  0.00    +0.000 C 
ATOM     24  C   UNL     1       6.042  13.951  23.205  0.00  0.00    +0.000 C 
ATOM     27  C   UNL     1       6.137  15.035  22.019  0.00  0.00    +0.000 C 
ATOM     28  C   UNL     1       5.550  14.351  22.440  0.00  0.00    +0.000 C 
ATOM     29  C   UNL     1      11.024  16.447  23.431  0.00  0.00    +0.000 C 
ATOM     30  C   UNL     1       7.823  15.606  22.410  0.00  0.00    +0.000 C 
ATOM     31  C   UNL     1      11.082  17.120  22.694  0.00  0.00    +0.000 C 
ATOM     32  C   UNL     1      10.311  17.247  22.070  0.00  0.00    +0.000 C 
ATOM     33  C   UNL     1       8.711  16.826  21.559  0.00  0.00    +0.000 C 
ATOM     34  C   UNL     1       9.482  16.700  22.183  0.00  0.00    +0.000 C 
ATOM     36  C   UNL     1       7.110  16.405  21.049  0.00  0.00    +0.000 C 
ATOM     53  H   UNL     1       9.014  14.728  24.158  0.00  0.00    +0.000 HD
ENDROOT
BRANCH  15  18
ATOM      3  O   UNL     1       7.864  13.859  23.393  0.00  0.00    +0.000 OA
ATOM     11  N   UNL     1       8.038  14.589  24.592  0.00  0.00    +0.000 N 
ATOM     18  C   UNL     1       8.222  14.764  23.625  0.00  0.00    +0.000 C 
ATOM     54  H   UNL     1       7.829  14.215  25.040  0.00  0.00    +0.000 HD
BRANCH  11   1
ATOM      1  S   UNL     1       8.256  15.285  25.277  0.00  0.00    +0.000 S 
ATOM      6  O   UNL     1       9.141  14.849  25.439  0.00  0.00    +0.000 OA
ATOM      7  O   UNL     1       7.371  15.722  25.115  0.00  0.00    +0.000 OA
BRANCH   1  21
ATOM     21  C   UNL     1       8.475  15.981  25.961  0.00  0.00    +0.000 C 
ATOM     25  C   UNL     1       8.305  16.878  26.367  0.00  0.00    +0.000 C 
ATOM     26  C   UNL     1       9.021  16.288  26.740  0.00  0.00    +0.000 C 
ENDBRANCH   1  21
ENDBRANCH  11   1
ENDBRANCH  15  18
BRANCH  28   4
ATOM      4  O   UNL     1       4.626  14.108  22.145  0.00  0.00    +0.000 OA
BRANCH   4  35
ATOM     13  N   UNL     1       2.288  14.642  23.947  0.00  0.00    +0.000 NA
ATOM     35  C   UNL     1       3.847  14.286  22.746  0.00  0.00    +0.000 A 
ATOM     37  C   UNL     1       3.196  15.011  22.520  0.00  0.00    +0.000 A 
ATOM     38  C   UNL     1       3.717  13.739  23.573  0.00  0.00    +0.000 A 
ATOM     39  C   UNL     1       2.417  15.189  23.120  0.00  0.00    +0.000 A 
ATOM     40  C   UNL     1       2.938  13.917  24.174  0.00  0.00    +0.000 A 
ATOM     41  C   UNL     1       3.344  15.573  21.654  0.00  0.00    +0.000 A 
ATOM     42  C   UNL     1       1.731  15.941  22.898  0.00  0.00    +0.000 A 
ATOM     43  C   UNL     1       2.671  16.330  21.412  0.00  0.00    +0.000 A 
ATOM     44  C   UNL     1       1.859  16.515  22.038  0.00  0.00    +0.000 A 
ATOM     46  C   UNL     1       0.955  16.111  23.505  0.00  0.00    +0.000 C 
BRANCH  40  45
ATOM      2  S   UNL     1       2.983  12.390  25.089  0.00  0.00    +0.000 S 
ATOM     14  N   UNL     1       2.482  13.708  25.884  0.00  0.00    +0.000 NA
ATOM     45  C   UNL     1       2.809  13.370  25.001  0.00  0.00    +0.000 A 
ATOM     47  C   UNL     1       2.455  12.936  26.518  0.00  0.00    +0.000 A 
ATOM     48  C   UNL     1       2.765  12.121  26.027  0.00  0.00    +0.000 A 
BRANCH  47  49
ATOM     49  C   UNL     1       2.169  12.972  27.476  0.00  0.00    +0.000 C 
ATOM     51  C   UNL     1       1.348  13.483  27.733  0.00  0.00    +0.000 C 
ATOM     52  C   UNL     1       2.703  12.498  28.176  0.00  0.00    +0.000 C 
ENDBRANCH  47  49
ENDBRANCH  40  45
BRANCH  44   9
ATOM      9  O   UNL     1       1.207  17.240  21.814  0.00  0.00    +0.000 OA
ATOM     50  C   UNL     1       1.354  17.815  21.010  0.00  0.00    +0.000 C 
ENDBRANCH  44   9
ENDBRANCH   4  35
ENDBRANCH  28   4
TORSDOF 8
ENDMDL
MODEL 2
REMARK VINA RESULT:   -10.717      1.005      1.131
REMARK INTER + INTRA:          62.861
REMARK INTER:                 -14.933
REMARK INTRA:                  77.794
REMARK UNBOUND:                77.963
REMARK  Name = 24873435
REMARK  13 active torsions:
REMARK  status: ('A' for Active; 'I' for Inactive)
REMARK    1  A    between atoms: S_1  and  N_11
REMARK    2  A    between atoms: S_1  and  C_21
REMARK    3  A    between atoms: O_4  and  C_28
REMARK    4  A    between atoms: O_4  and  C_35
REMARK    5  A    between atoms: O_9  and  C_44
REMARK    6  A    between atoms: O_9  and  C_50
REMARK    7  A    between atoms: N_12  and  C_36
REMARK    8  A    between atoms: C_15  and  C_18
REMARK    9  A    between atoms: C_40  and  C_45
REMARK   10  A    between atoms: C_42  and  C_46
REMARK   11  A    between atoms: C_47  and  C_49
REMARK   12  A    between atoms: C_49  and  C_51
REMARK   13  A    between atoms: C_49  and  C_52
REMARK                            x       y       z     vdW  Elec       q    Type
REMARK                         _______ _______ _______ _____ _____    ______ ____
ROOT
ATOM      5  O   UNL     1       6.834  13.760  24.532  0.00  0.00    +0.000 OA
ATOM      8  O   UNL     1       7.503  14.703  22.984  0.00  0.00    +0.000 OA
ATOM     10  N   UNL     1       8.313  14.499  23.533  0.00  0.00    +0.000 N 
ATOM     12  N   UNL     1       7.688  15.688  21.253  0.00  0.00    +0.000 N 
ATOM     15  C   UNL     1       8.407  14.991  22.668  0.00  0.00    +0.000 C 
ATOM     16  C   UNL     1       9.310  15.279  22.351  0.00  0.00    +0.000 C 
ATOM     17  C   UNL     1       8.499  15.484  21.802  0.00  0.00    +0.000 C 
ATOM     19  C   UNL     1       6.599  14.415  23.301  0.00  0.00    +0.000 C 
ATOM     20  C   UNL     1      10.121  15.075  22.900  0.00  0.00    +0.000 C 
ATOM     22  C   UNL     1       6.691  14.908  22.435  0.00  0.00    +0.000 C 
ATOM     23  C   UNL     1       7.410  14.211  23.850  0.00  0.00    +0.000 C 
ATOM     24  C   UNL     1       5.633  14.220  23.437  0.00  0.00    +0.000 C 
ATOM     27  C   UNL     1       5.784  15.012  22.045  0.00  0.00    +0.000 C 
ATOM     28  C   UNL     1       5.131  14.587  22.663  0.00  0.00    +0.000 C 
ATOM     29  C   UNL     1      11.025  15.363  22.583  0.00  0.00    +0.000 C 
ATOM     30  C   UNL     1       7.596  15.196  22.119  0.00  0.00    +0.000 C 
ATOM     31  C   UNL     1      11.118  15.856  21.718  0.00  0.00    +0.000 C 
ATOM     32  C   UNL     1      10.307  16.060  21.169  0.00  0.00    +0.000 C 
ATOM     33  C   UNL     1       8.593  15.976  20.937  0.00  0.00    +0.000 C 
ATOM     34  C   UNL     1       9.403  15.772  21.486  0.00  0.00    +0.000 C 
ATOM     36  C   UNL     1       6.879  15.892  20.705  0.00  0.00    +0.000 C 
ATOM     53  H   UNL     1       8.816  14.372  23.873  0.00  0.00    +0.000 HD
ENDROOT
BRANCH  15  18
ATOM      3  O   UNL     1       7.399  13.698  23.442  0.00  0.00    +0.000 OA
ATOM     11  N   UNL     1       7.910  14.570  24.431  0.00  0.00    +0.000 N 
ATOM     18  C   UNL     1       7.980  14.512  23.435  0.00  0.00    +0.000 C 
ATOM     54  H   UNL     1       7.693  14.349  24.967  0.00  0.00    +0.000 HD
BRANCH  11   1
ATOM      1  S   UNL     1       8.378  15.305  24.923  0.00  0.00    +0.000 S 
ATOM      6  O   UNL     1       7.598  15.908  24.765  0.00  0.00    +0.000 OA
ATOM      7  O   UNL     1       9.160  14.701  25.081  0.00  0.00    +0.000 OA
BRANCH   1  21
ATOM     21  C   UNL     1       8.846  16.039  25.415  0.00  0.00    +0.000 C 
ATOM     25  C   UNL     1       8.947  17.010  25.628  0.00  0.00    +0.000 C 
ATOM     26  C   UNL     1       9.555  16.340  26.052  0.00  0.00    +0.000 C 
ENDBRANCH   1  21
ENDBRANCH  11   1
ENDBRANCH  15  18
BRANCH  28   4
ATOM      4  O   UNL     1       4.142  14.539  22.529  0.00  0.00    +0.000 OA
BRANCH   4  35
ATOM     13  N   UNL     1       2.301  15.977  24.412  0.00  0.00    +0.000 NA
ATOM     35  C   UNL     1       3.528  15.018  23.157  0.00  0.00    +0.000 A 
ATOM     37  C   UNL     1       2.964  15.774  22.824  0.00  0.00    +0.000 A 
ATOM     38  C   UNL     1       3.479  14.742  24.116  0.00  0.00    +0.000 A 
ATOM     39  C   UNL     1       2.350  16.253  23.452  0.00  0.00    +0.000 A 
ATOM     40  C   UNL     1       2.865  15.221  24.744  0.00  0.00    +0.000 A 
ATOM     41  C   UNL     1       3.026  16.050  21.822  0.00  0.00    +0.000 A 
ATOM     42  C   UNL     1       1.756  17.042  23.121  0.00  0.00    +0.000 A 
ATOM     43  C   UNL     1       2.441  16.836  21.468  0.00  0.00    +0.000 A 
ATOM     44  C   UNL     1       1.802  17.336  22.122  0.00  0.00    +0.000 A 
ATOM     46  C   UNL     1       1.145  17.515  23.756  0.00  0.00    +0.000 C 
BRANCH  40  45
ATOM      2  S   UNL     1       3.327  15.354  26.459  0.00  0.00    +0.000 S 
ATOM     14  N   UNL     1       2.247  14.210  26.075  0.00  0.00    +0.000 NA
ATOM     45  C   UNL     1       2.816  14.945  25.704  0.00  0.00    +0.000 A 
ATOM     47  C   UNL     1       2.407  14.167  27.061  0.00  0.00    +0.000 A 
ATOM     48  C   UNL     1       3.074  14.873  27.299  0.00  0.00    +0.000 A 
BRANCH  47  49
ATOM     49  C   UNL     1       1.975  13.528  27.698  0.00  0.00    +0.000 C 
ATOM     51  C   UNL     1       0.998  13.603  27.897  0.00  0.00    +0.000 C 
ATOM     52  C   UNL     1       2.521  12.813  28.138  0.00  0.00    +0.000 C 
ENDBRANCH  47  49
ENDBRANCH  40  45
BRANCH  44   9
ATOM      9  O   UNL     1       1.236  18.092  21.793  0.00  0.00    +0.000 OA
ATOM     50  C   UNL     1       1.363  18.446  20.867  0.00  0.00    +0.000 C 
ENDBRANCH  44   9
ENDBRANCH   4  35
ENDBRANCH  28   4
TORSDOF 8
ENDMDL
MODEL 3
REMARK VINA RESULT:   -10.714      1.908      3.589
REMARK INTER + INTRA:          62.865
REMARK INTER:                 -14.604
REMARK INTRA:                  77.468
REMARK UNBOUND:                77.963
REMARK  Name = 24873435
REMARK  13 active torsions:
REMARK  status: ('A' for Active; 'I' for Inactive)
REMARK    1  A    between atoms: S_1  and  N_11
REMARK    2  A    between atoms: S_1  and  C_21
REMARK    3  A    between atoms: O_4  and  C_28
REMARK    4  A    between atoms: O_4  and  C_35
REMARK    5  A    between atoms: O_9  and  C_44
REMARK    6  A    between atoms: O_9  and  C_50
REMARK    7  A    between atoms: N_12  and  C_36
REMARK    8  A    between atoms: C_15  and  C_18
REMARK    9  A    between atoms: C_40  and  C_45
REMARK   10  A    between atoms: C_42  and  C_46
REMARK   11  A    between atoms: C_47  and  C_49
REMARK   12  A    between atoms: C_49  and  C_51
REMARK   13  A    between atoms: C_49  and  C_52
REMARK                            x       y       z     vdW  Elec       q    Type
REMARK                         _______ _______ _______ _____ _____    ______ ____
ROOT
ATOM      5  O   UNL     1       7.996  14.172  24.345  0.00  0.00    +0.000 OA
ATOM      8  O   UNL     1       8.065  15.536  22.979  0.00  0.00    +0.000 OA
ATOM     10  N   UNL     1       8.843  14.939  22.788  0.00  0.00    +0.000 N 
ATOM     12  N   UNL     1       7.710  17.123  21.814  0.00  0.00    +0.000 N 
ATOM     15  C   UNL     1       8.667  15.732  22.205  0.00  0.00    +0.000 C 
ATOM     16  C   UNL     1       9.269  15.928  21.431  0.00  0.00    +0.000 C 
ATOM     17  C   UNL     1       8.489  16.526  21.622  0.00  0.00    +0.000 C 
ATOM     19  C   UNL     1       7.462  15.341  23.753  0.00  0.00    +0.000 C 
ATOM     20  C   UNL     1      10.048  15.330  21.240  0.00  0.00    +0.000 C 
ATOM     22  C   UNL     1       7.285  16.134  23.170  0.00  0.00    +0.000 C 
ATOM     23  C   UNL     1       8.241  14.743  23.562  0.00  0.00    +0.000 C 
ATOM     24  C   UNL     1       6.761  15.319  24.458  0.00  0.00    +0.000 C 
ATOM     27  C   UNL     1       6.477  16.595  23.520  0.00  0.00    +0.000 C 
ATOM     28  C   UNL     1       6.154  16.092  24.314  0.00  0.00    +0.000 C 
ATOM     29  C   UNL     1      10.650  15.526  20.466  0.00  0.00    +0.000 C 
ATOM     30  C   UNL     1       7.888  16.329  22.396  0.00  0.00    +0.000 C 
ATOM     31  C   UNL     1      10.473  16.319  19.883  0.00  0.00    +0.000 C 
ATOM     32  C   UNL     1       9.694  16.917  20.074  0.00  0.00    +0.000 C 
ATOM     33  C   UNL     1       8.313  17.318  21.039  0.00  0.00    +0.000 C 
ATOM     34  C   UNL     1       9.092  16.721  20.848  0.00  0.00    +0.000 C 
ATOM     36  C   UNL     1       6.932  17.720  22.005  0.00  0.00    +0.000 C 
ATOM     53  H   UNL     1       9.326  14.568  22.670  0.00  0.00    +0.000 HD
ENDROOT
BRANCH  15  18
ATOM      3  O   UNL     1       7.771  14.504  23.193  0.00  0.00    +0.000 OA
ATOM     11  N   UNL     1       9.081  14.670  23.699  0.00  0.00    +0.000 N 
ATOM     18  C   UNL     1       8.559  15.066  22.944  0.00  0.00    +0.000 C 
ATOM     54  H   UNL     1       9.118  14.283  24.181  0.00  0.00    +0.000 HD
BRANCH  11   1
ATOM      1  S   UNL     1      10.025  14.959  23.861  0.00  0.00    +0.000 S 
ATOM      6  O   UNL     1      10.355  14.184  23.322  0.00  0.00    +0.000 OA
ATOM      7  O   UNL     1       9.695  15.734  24.399  0.00  0.00    +0.000 OA
BRANCH   1  21
ATOM     21  C   UNL     1      10.969  15.248  24.022  0.00  0.00    +0.000 C 
ATOM     25  C   UNL     1      11.951  15.073  23.956  0.00  0.00    +0.000 C 
ATOM     26  C   UNL     1      11.621  15.922  24.368  0.00  0.00    +0.000 C 
ENDBRANCH   1  21
ENDBRANCH  11   1
ENDBRANCH  15  18
BRANCH  28   4
ATOM      4  O   UNL     1       5.357  16.324  24.871  0.00  0.00    +0.000 OA
BRANCH   4  35
ATOM     13  N   UNL     1       2.764  14.872  24.458  0.00  0.00    +0.000 NA
ATOM     35  C   UNL     1       4.493  15.840  24.733  0.00  0.00    +0.000 A 
ATOM     37  C   UNL     1       3.933  15.582  25.521  0.00  0.00    +0.000 A 
ATOM     38  C   UNL     1       4.188  15.614  23.808  0.00  0.00    +0.000 A 
ATOM     39  C   UNL     1       3.069  15.098  25.383  0.00  0.00    +0.000 A 
ATOM     40  C   UNL     1       3.324  15.131  23.670  0.00  0.00    +0.000 A 
ATOM     41  C   UNL     1       4.264  15.823  26.479  0.00  0.00    +0.000 A 
ATOM     42  C   UNL     1       2.475  14.822  26.193  0.00  0.00    +0.000 A 
ATOM     43  C   UNL     1       3.686  15.558  27.304  0.00  0.00    +0.000 A 
ATOM     44  C   UNL     1       2.786  15.053  27.160  0.00  0.00    +0.000 A 
ATOM     46  C   UNL     1       1.612  14.338  26.044  0.00  0.00    +0.000 C 
BRANCH  40  45
ATOM      2  S   UNL     1       3.451  14.247  22.129  0.00  0.00    +0.000 S 
ATOM     14  N   UNL     1       2.229  15.299  22.274  0.00  0.00    +0.000 NA
ATOM     45  C   UNL     1       3.019  14.905  22.745  0.00  0.00    +0.000 A 
ATOM     47  C   UNL     1       2.173  14.883  21.366  0.00  0.00    +0.000 A 
ATOM     48  C   UNL     1       2.928  14.233  21.276  0.00  0.00    +0.000 A 
BRANCH  47  49
ATOM     49  C   UNL     1       1.483  15.083  20.670  0.00  0.00    +0.000 C 
ATOM     51  C   UNL     1       1.170  16.023  20.532  0.00  0.00    +0.000 C 
ATOM     52  C   UNL     1       1.106  14.343  20.112  0.00  0.00    +0.000 C 
ENDBRANCH  47  49
ENDBRANCH  40  45
BRANCH  44   9
ATOM      9  O   UNL     1       2.224  14.794  27.946  0.00  0.00    +0.000 OA
ATOM     50  C   UNL     1       2.525  15.016  28.872  0.00  0.00    +0.000 C 
ENDBRANCH  44   9
ENDBRANCH   4  35
ENDBRANCH  28   4
TORSDOF 8
ENDMDL
MODEL 4
REMARK VINA RESULT:   -10.559      2.526      3.190
REMARK INTER + INTRA:          63.083
REMARK INTER:                 -14.098
REMARK INTRA:                  77.181
REMARK UNBOUND:                77.963
REMARK  Name = 24873435
REMARK  13 active torsions:
REMARK  status: ('A' for Active; 'I' for Inactive)
REMARK    1  A    between atoms: S_1  and  N_11
REMARK    2  A    between atoms: S_1  and  C_21
REMARK    3  A    between atoms: O_4  and  C_28
REMARK    4  A    between atoms: O_4  and  C_35
REMARK    5  A    between atoms: O_9  and  C_44
REMARK    6  A    between atoms: O_9  and  C_50
REMARK    7  A    between atoms: N_12  and  C_36
REMARK    8  A    between atoms: C_15  and  C_18
REMARK    9  A    between atoms: C_40  and  C_45
REMARK   10  A    between atoms: C_42  and  C_46
REMARK   11  A    between atoms: C_47  and  C_49
REMARK   12  A    between atoms: C_49  and  C_51
REMARK   13  A    between atoms: C_49  and  C_52
REMARK                            x       y       z     vdW  Elec       q    Type
REMARK                         _______ _______ _______ _____ _____    ______ ____
ROOT
ATOM      5  O   UNL     1       6.622  13.993  24.357  0.00  0.00    +0.000 OA
ATOM      8  O   UNL     1       7.905  14.721  23.110  0.00  0.00    +0.000 OA
ATOM     10  N   UNL     1       8.439  14.480  23.920  0.00  0.00    +0.000 N 
ATOM     12  N   UNL     1       8.808  15.526  21.517  0.00  0.00    +0.000 N 
ATOM     15  C   UNL     1       8.891  14.883  23.124  0.00  0.00    +0.000 C 
ATOM     16  C   UNL     1       9.878  15.044  23.138  0.00  0.00    +0.000 C 
ATOM     17  C   UNL     1       9.343  15.285  22.327  0.00  0.00    +0.000 C 
ATOM     19  C   UNL     1       6.918  14.559  23.095  0.00  0.00    +0.000 C 
ATOM     20  C   UNL     1      10.413  14.804  23.948  0.00  0.00    +0.000 C 
ATOM     22  C   UNL     1       7.369  14.961  22.299  0.00  0.00    +0.000 C 
ATOM     23  C   UNL     1       7.453  14.318  23.906  0.00  0.00    +0.000 C 
ATOM     24  C   UNL     1       5.949  14.479  22.887  0.00  0.00    +0.000 C 
ATOM     27  C   UNL     1       6.677  15.127  21.606  0.00  0.00    +0.000 C 
ATOM     28  C   UNL     1       5.800  14.830  21.969  0.00  0.00    +0.000 C 
ATOM     29  C   UNL     1      11.399  14.966  23.962  0.00  0.00    +0.000 C 
ATOM     30  C   UNL     1       8.357  15.123  22.313  0.00  0.00    +0.000 C 
ATOM     31  C   UNL     1      11.851  15.368  23.166  0.00  0.00    +0.000 C 
ATOM     32  C   UNL     1      11.317  15.609  22.356  0.00  0.00    +0.000 C 
ATOM     33  C   UNL     1       9.795  15.687  21.532  0.00  0.00    +0.000 C 
ATOM     34  C   UNL     1      10.330  15.447  22.342  0.00  0.00    +0.000 C 
ATOM     36  C   UNL     1       8.274  15.766  20.707  0.00  0.00    +0.000 C 
ATOM     53  H   UNL     1       8.771  14.331  24.422  0.00  0.00    +0.000 HD
ENDROOT
BRANCH  15  18
ATOM      3  O   UNL     1       7.512  13.782  23.540  0.00  0.00    +0.000 OA
ATOM     11  N   UNL     1       7.767  14.666  24.614  0.00  0.00    +0.000 N 
ATOM     18  C   UNL     1       8.166  14.520  23.708  0.00  0.00    +0.000 C 
ATOM     54  H   UNL     1       7.351  14.516  25.048  0.00  0.00    +0.000 HD
BRANCH  11   1
ATOM      1  S   UNL     1       8.134  15.378  25.213  0.00  0.00    +0.000 S 
ATOM      6  O   UNL     1       8.757  14.713  25.623  0.00  0.00    +0.000 OA
ATOM      7  O   UNL     1       7.511  16.045  24.803  0.00  0.00    +0.000 OA
BRANCH   1  21
ATOM     21  C   UNL     1       8.501  16.090  25.812  0.00  0.00    +0.000 C 
ATOM     25  C   UNL     1       8.929  16.360  26.674  0.00  0.00    +0.000 C 
ATOM     26  C   UNL     1       8.709  17.052  25.987  0.00  0.00    +0.000 C 
ENDBRANCH   1  21
ENDBRANCH  11   1
ENDBRANCH  15  18
BRANCH  28   4
ATOM      4  O   UNL     1       4.922  14.875  21.494  0.00  0.00    +0.000 OA
BRANCH   4  35
ATOM     13  N   UNL     1       3.040  17.148  22.032  0.00  0.00    +0.000 NA
ATOM     35  C   UNL     1       4.294  15.633  21.673  0.00  0.00    +0.000 A 
ATOM     37  C   UNL     1       3.349  15.586  21.351  0.00  0.00    +0.000 A 
ATOM     38  C   UNL     1       4.613  16.437  22.175  0.00  0.00    +0.000 A 
ATOM     39  C   UNL     1       2.722  16.344  21.531  0.00  0.00    +0.000 A 
ATOM     40  C   UNL     1       3.985  17.195  22.354  0.00  0.00    +0.000 A 
ATOM     41  C   UNL     1       3.032  14.741  20.830  0.00  0.00    +0.000 A 
ATOM     42  C   UNL     1       1.734  16.310  21.201  0.00  0.00    +0.000 A 
ATOM     43  C   UNL     1       2.049  14.686  20.491  0.00  0.00    +0.000 A 
ATOM     44  C   UNL     1       1.395  15.475  20.678  0.00  0.00    +0.000 A 
ATOM     46  C   UNL     1       1.114  17.073  21.386  0.00  0.00    +0.000 C 
BRANCH  40  45
ATOM      2  S   UNL     1       3.980  18.937  22.729  0.00  0.00    +0.000 S 
ATOM     14  N   UNL     1       5.002  18.007  23.572  0.00  0.00    +0.000 NA
ATOM     45  C   UNL     1       4.304  17.999  22.856  0.00  0.00    +0.000 A 
ATOM     47  C   UNL     1       5.109  18.950  23.887  0.00  0.00    +0.000 A 
ATOM     48  C   UNL     1       4.477  19.524  23.367  0.00  0.00    +0.000 A 
BRANCH  47  49
ATOM     49  C   UNL     1       5.738  19.263  24.600  0.00  0.00    +0.000 C 
ATOM     51  C   UNL     1       5.486  19.173  25.563  0.00  0.00    +0.000 C 
ATOM     52  C   UNL     1       6.618  19.666  24.348  0.00  0.00    +0.000 C 
ENDBRANCH  47  49
ENDBRANCH  40  45
BRANCH  44   9
ATOM      9  O   UNL     1       0.448  15.431  20.357  0.00  0.00    +0.000 OA
ATOM     50  C   UNL     1       0.120  14.620  19.876  0.00  0.00    +0.000 C 
ENDBRANCH  44   9
ENDBRANCH   4  35
ENDBRANCH  28   4
TORSDOF 8
ENDMDL
MODEL 5
REMARK VINA RESULT:   -10.494      1.544      3.589
REMARK INTER + INTRA:          63.175
REMARK INTER:                 -14.662
REMARK INTRA:                  77.837
REMARK UNBOUND:                77.963
REMARK  Name = 24873435
REMARK  13 active torsions:
REMARK  status: ('A' for Active; 'I' for Inactive)
REMARK    1  A    between atoms: S_1  and  N_11
REMARK    2  A    between atoms: S_1  and  C_21
REMARK    3  A    between atoms: O_4  and  C_28
REMARK    4  A    between atoms: O_4  and  C_35
REMARK    5  A    between atoms: O_9  and  C_44
REMARK    6  A    between atoms: O_9  and  C_50
REMARK    7  A    between atoms: N_12  and  C_36
REMARK    8  A    between atoms: C_15  and  C_18
REMARK    9  A    between atoms: C_40  and  C_45
REMARK   10  A    between atoms: C_42  and  C_46
REMARK   11  A    between atoms: C_47  and  C_49
REMARK   12  A    between atoms: C_49  and  C_51
REMARK   13  A    between atoms: C_49  and  C_52
REMARK                            x       y       z     vdW  Elec       q    Type
REMARK                         _______ _______ _______ _____ _____    ______ ____
ROOT
ATOM      5  O   UNL     1       7.393  13.876  24.442  0.00  0.00    +0.000 OA
ATOM      8  O   UNL     1       7.460  14.800  22.746  0.00  0.00    +0.000 OA
ATOM     10  N   UNL     1       8.386  14.870  23.116  0.00  0.00    +0.000 N 
ATOM     12  N   UNL     1       7.024  15.619  20.974  0.00  0.00    +0.000 N 
ATOM     15  C   UNL     1       8.169  15.279  22.230  0.00  0.00    +0.000 C 
ATOM     16  C   UNL     1       8.878  15.759  21.714  0.00  0.00    +0.000 C 
ATOM     17  C   UNL     1       7.951  15.689  21.344  0.00  0.00    +0.000 C 
ATOM     19  C   UNL     1       6.750  14.320  23.262  0.00  0.00    +0.000 C 
ATOM     20  C   UNL     1       9.805  15.829  22.083  0.00  0.00    +0.000 C 
ATOM     22  C   UNL     1       6.532  14.729  22.376  0.00  0.00    +0.000 C 
ATOM     23  C   UNL     1       7.677  14.390  23.632  0.00  0.00    +0.000 C 
ATOM     24  C   UNL     1       5.922  13.894  23.612  0.00  0.00    +0.000 C 
ATOM     27  C   UNL     1       5.573  14.554  22.186  0.00  0.00    +0.000 C 
ATOM     28  C   UNL     1       5.197  14.039  22.949  0.00  0.00    +0.000 C 
ATOM     29  C   UNL     1      10.514  16.309  21.567  0.00  0.00    +0.000 C 
ATOM     30  C   UNL     1       7.242  15.209  21.860  0.00  0.00    +0.000 C 
ATOM     31  C   UNL     1      10.297  16.719  20.681  0.00  0.00    +0.000 C 
ATOM     32  C   UNL     1       9.371  16.649  20.311  0.00  0.00    +0.000 C 
ATOM     33  C   UNL     1       7.735  16.099  20.458  0.00  0.00    +0.000 C 
ATOM     34  C   UNL     1       8.661  16.169  20.828  0.00  0.00    +0.000 C 
ATOM     36  C   UNL     1       6.099  15.549  20.604  0.00  0.00    +0.000 C 
ATOM     53  H   UNL     1       8.961  14.913  23.345  0.00  0.00    +0.000 HD
ENDROOT
BRANCH  15  18
ATOM      3  O   UNL     1       7.714  13.859  23.260  0.00  0.00    +0.000 OA
ATOM     11  N   UNL     1       8.175  14.919  24.074  0.00  0.00    +0.000 N 
ATOM     18  C   UNL     1       8.049  14.786  23.091  0.00  0.00    +0.000 C 
ATOM     54  H   UNL     1       8.139  14.704  24.654  0.00  0.00    +0.000 HD
BRANCH  11   1
ATOM      1  S   UNL     1       8.529  15.789  24.420  0.00  0.00    +0.000 S 
ATOM      6  O   UNL     1       9.455  15.413  24.419  0.00  0.00    +0.000 OA
ATOM      7  O   UNL     1       7.602  16.165  24.420  0.00  0.00    +0.000 OA
BRANCH   1  21
ATOM     21  C   UNL     1       8.882  16.658  24.765  0.00  0.00    +0.000 C 
ATOM     25  C   UNL     1       9.591  17.175  25.243  0.00  0.00    +0.000 C 
ATOM     26  C   UNL     1       8.786  17.646  24.885  0.00  0.00    +0.000 C 
ENDBRANCH   1  21
ENDBRANCH  11   1
ENDBRANCH  15  18
BRANCH  28   4
ATOM      4  O   UNL     1       4.252  13.721  23.033  0.00  0.00    +0.000 OA
BRANCH   4  35
ATOM     13  N   UNL     1       2.078  15.658  23.755  0.00  0.00    +0.000 NA
ATOM     35  C   UNL     1       3.527  14.367  23.274  0.00  0.00    +0.000 A 
ATOM     37  C   UNL     1       3.034  14.265  24.138  0.00  0.00    +0.000 A 
ATOM     38  C   UNL     1       3.296  15.114  22.651  0.00  0.00    +0.000 A 
ATOM     39  C   UNL     1       2.309  14.911  24.378  0.00  0.00    +0.000 A 
ATOM     40  C   UNL     1       2.571  15.760  22.892  0.00  0.00    +0.000 A 
ATOM     41  C   UNL     1       3.286  13.482  24.776  0.00  0.00    +0.000 A 
ATOM     42  C   UNL     1       1.786  14.818  25.274  0.00  0.00    +0.000 A 
ATOM     43  C   UNL     1       2.776  13.369  25.678  0.00  0.00    +0.000 A 
ATOM     44  C   UNL     1       2.021  14.042  25.928  0.00  0.00    +0.000 A 
ATOM     46  C   UNL     1       1.062  15.469  25.506  0.00  0.00    +0.000 C 
BRANCH  40  45
ATOM      2  S   UNL     1       2.792  17.398  22.227  0.00  0.00    +0.000 S 
ATOM     14  N   UNL     1       1.617  16.493  21.578  0.00  0.00    +0.000 NA
ATOM     45  C   UNL     1       2.340  16.507  22.269  0.00  0.00    +0.000 A 
ATOM     47  C   UNL     1       1.622  17.377  21.110  0.00  0.00    +0.000 A 
ATOM     48  C   UNL     1       2.348  17.936  21.511  0.00  0.00    +0.000 A 
BRANCH  47  49
ATOM     49  C   UNL     1       1.008  17.653  20.370  0.00  0.00    +0.000 C 
ATOM     51  C   UNL     1       0.479  16.963  19.875  0.00  0.00    +0.000 C 
ATOM     52  C   UNL     1       0.923  18.619  20.124  0.00  0.00    +0.000 C 
ENDBRANCH  47  49
ENDBRANCH  40  45
BRANCH  44   9
ATOM      9  O   UNL     1       1.525  13.943  26.792  0.00  0.00    +0.000 OA
ATOM     50  C   UNL     1       1.760  13.203  27.421  0.00  0.00    +0.000 C 
ENDBRANCH  44   9
ENDBRANCH   4  35
ENDBRANCH  28   4
TORSDOF 8
ENDMDL
