MODEL 1
REMARK VINA RESULT:    -7.291      0.000      0.000
REMARK INTER + INTRA:          37.786
REMARK INTER:                 -13.258
REMARK INTRA:                  51.044
REMARK UNBOUND:                51.044
REMARK  Name = 16076883
REMARK  21 active torsions:
REMARK  status: ('A' for Active; 'I' for Inactive)
REMARK    1  A    between atoms: S_2  and  N_13
REMARK    2  A    between atoms: S_2  and  C_21
REMARK    3  A    between atoms: O_7  and  C_28
REMARK    4  A    between atoms: O_7  and  C_37
REMARK    5  A    between atoms: O_9  and  C_38
REMARK    6  A    between atoms: O_9  and  C_44
REMARK    7  A    between atoms: O_11  and  C_43
REMARK    8  A    between atoms: O_11  and  C_51
REMARK    9  A    between atoms: N_12  and  C_17
REMARK   10  A    between atoms: N_15  and  C_32
REMARK   11  A    between atoms: C_17  and  C_20
REMARK   12  A    between atoms: C_18  and  C_22
REMARK   13  A    between atoms: C_25  and  C_26
REMARK   14  A    between atoms: C_31  and  C_32
REMARK   15  A    between atoms: C_32  and  C_33
REMARK   16  A    between atoms: C_33  and  C_34
REMARK   17  A    between atoms: C_33  and  C_35
REMARK   18  A    between atoms: C_33  and  C_36
REMARK   19  A    between atoms: C_44  and  C_48
REMARK   20  A    between atoms: C_44  and  C_49
REMARK   21  A    between atoms: C_44  and  C_50
REMARK                            x       y       z     vdW  Elec       q    Type
REMARK                         _______ _______ _______ _____ _____    ______ ____
ROOT
ATOM      8  O   UNL     1       3.969  15.369  21.562  0.00  0.00    +0.000 OA
ATOM     14  N   UNL     1       3.387  14.907  23.126  0.00  0.00    +0.000 N 
ATOM     25  C   UNL     1       2.735  15.659  23.221  0.00  0.00    +0.000 C 
ATOM     27  C   UNL     1       2.278  15.562  24.105  0.00  0.00    +0.000 C 
ATOM     28  C   UNL     1       2.648  14.749  24.556  0.00  0.00    +0.000 C 
ATOM     29  C   UNL     1       3.333  14.345  23.951  0.00  0.00    +0.000 C 
ATOM     31  C   UNL     1       3.989  14.746  22.343  0.00  0.00    +0.000 C 
ENDROOT
BRANCH  25  26
ATOM      6  O   UNL     1       3.337  16.906  22.181  0.00  0.00    +0.000 OA
ATOM     12  N   UNL     1       1.637  16.581  22.251  0.00  0.00    +0.000 N 
ATOM     26  C   UNL     1       2.569  16.382  22.551  0.00  0.00    +0.000 C 
ATOM     52  H   UNL     1       1.161  16.257  22.480  0.00  0.00    +0.000 HD
BRANCH  12  17
ATOM     17  C   UNL     1       1.471  17.305  21.580  0.00  0.00    +0.000 C 
ATOM     18  C   UNL     1       1.188  16.619  20.910  0.00  0.00    +0.000 C 
ATOM     19  C   UNL     1       1.186  17.588  20.664  0.00  0.00    +0.000 C 
BRANCH  17  20
ATOM      3  O   UNL     1       2.216  18.834  21.250  0.00  0.00    +0.000 OA
ATOM     13  N   UNL     1       1.213  18.643  22.648  0.00  0.00    +0.000 N 
ATOM     20  C   UNL     1       1.634  18.260  21.825  0.00  0.00    +0.000 C 
ATOM     53  H   UNL     1       0.851  18.287  23.005  0.00  0.00    +0.000 HD
BRANCH  13   2
ATOM      2  S   UNL     1       1.375  19.599  22.895  0.00  0.00    +0.000 S 
ATOM      4  O   UNL     1       0.580  19.873  22.353  0.00  0.00    +0.000 OA
ATOM      5  O   UNL     1       2.169  19.324  23.437  0.00  0.00    +0.000 OA
BRANCH   2  21
ATOM     21  C   UNL     1       1.537  20.554  23.141  0.00  0.00    +0.000 C 
ATOM     23  C   UNL     1       1.835  21.475  22.890  0.00  0.00    +0.000 C 
ATOM     24  C   UNL     1       1.519  21.288  23.820  0.00  0.00    +0.000 C 
ENDBRANCH   2  21
ENDBRANCH  13   2
ENDBRANCH  17  20
BRANCH  18  22
ATOM     22  C   UNL     1       1.026  15.663  20.665  0.00  0.00    +0.000 C 
ATOM     30  C   UNL     1       0.454  15.439  19.875  0.00  0.00    +0.000 C 
ENDBRANCH  18  22
ENDBRANCH  12  17
ENDBRANCH  25  26
BRANCH  28   7
ATOM      7  O   UNL     1       2.378  14.402  25.455  0.00  0.00    +0.000 OA
BRANCH   7  37
ATOM      1 CL   UNL     1       0.287  13.240  28.229  0.00  0.00    +0.000 Cl
ATOM     16  N   UNL     1       3.632  15.325  26.212  0.00  0.00    +0.000 NA
ATOM     37  C   UNL     1       2.804  14.769  26.281  0.00  0.00    +0.000 A 
ATOM     39  C   UNL     1       2.402  14.580  27.177  0.00  0.00    +0.000 A 
ATOM     40  C   UNL     1       2.828  14.947  28.004  0.00  0.00    +0.000 A 
ATOM     41  C   UNL     1       1.539  13.999  27.234  0.00  0.00    +0.000 A 
ATOM     42  C   UNL     1       4.058  15.693  27.039  0.00  0.00    +0.000 A 
ATOM     43  C   UNL     1       3.656  15.503  27.935  0.00  0.00    +0.000 A 
ATOM     45  C   UNL     1       2.421  14.758  28.945  0.00  0.00    +0.000 A 
ATOM     46  C   UNL     1       1.115  13.797  28.164  0.00  0.00    +0.000 A 
ATOM     47  C   UNL     1       1.559  14.180  29.024  0.00  0.00    +0.000 A 
BRANCH  43  11
ATOM     11  O   UNL     1       4.083  15.871  28.762  0.00  0.00    +0.000 OA
ATOM     51  C   UNL     1       4.777  16.587  28.691  0.00  0.00    +0.000 C 
ENDBRANCH  43  11
ENDBRANCH   7  37
ENDBRANCH  28   7
BRANCH  31  32
ATOM     32  C   UNL     1       4.609  13.962  22.343  0.00  0.00    +0.000 C 
BRANCH  32  15
ATOM     10  O   UNL     1       6.310  14.968  22.038  0.00  0.00    +0.000 OA
ATOM     15  N   UNL     1       5.349  13.908  23.014  0.00  0.00    +0.000 N 
ATOM     38  C   UNL     1       6.200  14.411  22.861  0.00  0.00    +0.000 C 
ATOM     54  H   UNL     1       5.280  13.563  23.524  0.00  0.00    +0.000 HD
BRANCH  38   9
ATOM      9  O   UNL     1       6.940  14.357  23.531  0.00  0.00    +0.000 OA
BRANCH   9  44
ATOM     44  C   UNL     1       7.540  15.144  23.678  0.00  0.00    +0.000 C 
ATOM     48  C   UNL     1       8.141  15.930  23.825  0.00  0.00    +0.000 C 
ATOM     49  C   UNL     1       6.899  15.507  24.355  0.00  0.00    +0.000 C 
ATOM     50  C   UNL     1       8.180  14.780  23.002  0.00  0.00    +0.000 C 
ENDBRANCH   9  44
ENDBRANCH  38   9
ENDBRANCH  32  15
BRANCH  32  33
ATOM     33  C   UNL     1       4.488  13.230  21.672  0.00  0.00    +0.000 C 
ATOM     34  C   UNL     1       4.368  12.499  21.000  0.00  0.00    +0.000 C 
ATOM     35  C   UNL     1       4.610  13.890  20.930  0.00  0.00    +0.000 C 
ATOM     36  C   UNL     1       4.366  12.570  22.413  0.00  0.00    +0.000 C 
ENDBRANCH  32  33
ENDBRANCH  31  32
TORSDOF 14
ENDMDL
MODEL 2
REMARK VINA RESULT:    -7.185      2.696      6.236
REMARK INTER + INTRA:          37.979
REMARK INTER:                 -13.243
REMARK INTRA:                  51.222
REMARK UNBOUND:                51.044
REMARK  Name = 16076883
REMARK  21 active torsions:
REMARK  status: ('A' for Active; 'I' for Inactive)
REMARK    1  A    between atoms: S_2  and  N_13
REMARK    2  A    between atoms: S_2  and  C_21
REMARK    3  A    between atoms: O_7  and  C_28
REMARK    4  A    between atoms: O_7  and  C_37
REMARK    5  A    between atoms: O_9  and  C_38
REMARK    6  A    between atoms: O_9  and  C_44
REMARK    7  A    between atoms: O_11  and  C_43
REMARK    8  A    between atoms: O_11  and  C_51
REMARK    9  A    between atoms: N_12  and  C_17
REMARK   10  A    between atoms: N_15  and  C_32
REMARK   11  A    between atoms: C_17  and  C_20
REMARK   12  A    between atoms: C_18  and  C_22
REMARK   13  A    between atoms: C_25  and  C_26
REMARK   14  A    between atoms: C_31  and  C_32
REMARK   15  A    between atoms: C_32  and  C_33
REMARK   16  A    between atoms: C_33  and  C_34
REMARK   17  A    between atoms: C_33  and  C_35
REMARK   18  A    between atoms: C_33  and  C_36
REMARK   19  A    between atoms: C_44  and  C_48
REMARK   20  A    between atoms: C_44  and  C_49
REMARK   21  A    between atoms: C_44  and  C_50
REMARK                            x       y       z     vdW  Elec       q    Type
REMARK                         _______ _______ _______ _____ _____    ______ ____
ROOT
ATOM      8  O   UNL     1       2.018  15.452  24.864  0.00  0.00    +0.000 OA
ATOM     14  N   UNL     1       3.628  16.014  25.167  0.00  0.00    +0.000 N 
ATOM     25  C   UNL     1       3.708  15.614  26.080  0.00  0.00    +0.000 C 
ATOM     27  C   UNL     1       4.614  15.841  26.438  0.00  0.00    +0.000 C 
ATOM     28  C   UNL     1       5.093  16.382  25.746  0.00  0.00    +0.000 C 
ATOM     29  C   UNL     1       4.483  16.489  24.961  0.00  0.00    +0.000 C 
ATOM     31  C   UNL     1       2.830  15.951  24.566  0.00  0.00    +0.000 C 
ENDROOT
BRANCH  25  26
ATOM      6  O   UNL     1       2.116  15.489  26.748  0.00  0.00    +0.000 OA
ATOM     12  N   UNL     1       3.196  14.138  26.828  0.00  0.00    +0.000 N 
ATOM     26  C   UNL     1       3.007  15.080  26.552  0.00  0.00    +0.000 C 
ATOM     52  H   UNL     1       3.749  13.884  26.706  0.00  0.00    +0.000 HD
BRANCH  12  17
ATOM     17  C   UNL     1       2.495  13.604  27.300  0.00  0.00    +0.000 C 
ATOM     18  C   UNL     1       2.421  13.000  26.507  0.00  0.00    +0.000 C 
ATOM     19  C   UNL     1       1.850  12.839  27.313  0.00  0.00    +0.000 C 
BRANCH  17  20
ATOM      3  O   UNL     1       1.248  14.067  28.411  0.00  0.00    +0.000 OA
ATOM     13  N   UNL     1       2.884  13.913  28.959  0.00  0.00    +0.000 N 
ATOM     20  C   UNL     1       2.209  13.861  28.223  0.00  0.00    +0.000 C 
ATOM     53  H   UNL     1       3.479  13.785  28.843  0.00  0.00    +0.000 HD
BRANCH  13   2
ATOM      2  S   UNL     1       2.598  14.170  29.883  0.00  0.00    +0.000 S 
ATOM      4  O   UNL     1       2.686  15.137  29.640  0.00  0.00    +0.000 OA
ATOM      5  O   UNL     1       2.510  13.204  30.125  0.00  0.00    +0.000 OA
BRANCH   2  21
ATOM     21  C   UNL     1       2.313  14.428  30.806  0.00  0.00    +0.000 C 
ATOM     23  C   UNL     1       2.027  15.127  31.461  0.00  0.00    +0.000 C 
ATOM     24  C   UNL     1       2.104  14.173  31.750  0.00  0.00    +0.000 C 
ENDBRANCH   2  21
ENDBRANCH  13   2
ENDBRANCH  17  20
BRANCH  18  22
ATOM     22  C   UNL     1       2.708  12.743  25.584  0.00  0.00    +0.000 C 
ATOM     30  C   UNL     1       2.777  11.777  25.333  0.00  0.00    +0.000 C 
ENDBRANCH  18  22
ENDBRANCH  12  17
ENDBRANCH  25  26
BRANCH  28   7
ATOM      7  O   UNL     1       6.020  16.751  25.827  0.00  0.00    +0.000 OA
BRANCH   7  37
ATOM      1 CL   UNL     1       8.482  16.246  28.490  0.00  0.00    +0.000 Cl
ATOM     16  N   UNL     1       6.749  16.051  24.421  0.00  0.00    +0.000 NA
ATOM     37  C   UNL     1       6.786  16.277  25.394  0.00  0.00    +0.000 A 
ATOM     39  C   UNL     1       7.590  16.030  25.934  0.00  0.00    +0.000 A 
ATOM     40  C   UNL     1       8.357  15.556  25.502  0.00  0.00    +0.000 A 
ATOM     41  C   UNL     1       7.615  16.272  26.947  0.00  0.00    +0.000 A 
ATOM     42  C   UNL     1       7.515  15.577  23.988  0.00  0.00    +0.000 A 
ATOM     43  C   UNL     1       8.320  15.330  24.528  0.00  0.00    +0.000 A 
ATOM     45  C   UNL     1       9.201  15.292  26.051  0.00  0.00    +0.000 A 
ATOM     46  C   UNL     1       8.449  16.017  27.516  0.00  0.00    +0.000 A 
ATOM     47  C   UNL     1       9.247  15.524  27.066  0.00  0.00    +0.000 A 
BRANCH  43  11
ATOM     11  O   UNL     1       9.087  14.856  24.095  0.00  0.00    +0.000 OA
ATOM     51  C   UNL     1       9.243  14.950  23.112  0.00  0.00    +0.000 C 
ENDBRANCH  43  11
ENDBRANCH   7  37
ENDBRANCH  28   7
BRANCH  31  32
ATOM     32  C   UNL     1       2.848  16.388  23.667  0.00  0.00    +0.000 C 
BRANCH  32  15
ATOM     10  O   UNL     1       2.528  14.678  22.681  0.00  0.00    +0.000 OA
ATOM     15  N   UNL     1       3.499  16.081  22.972  0.00  0.00    +0.000 N 
ATOM     38  C   UNL     1       3.339  15.226  22.480  0.00  0.00    +0.000 C 
ATOM     54  H   UNL     1       4.001  16.421  22.848  0.00  0.00    +0.000 HD
BRANCH  38   9
ATOM      9  O   UNL     1       3.989  14.919  21.786  0.00  0.00    +0.000 OA
BRANCH   9  44
ATOM     44  C   UNL     1       4.065  13.946  21.566  0.00  0.00    +0.000 C 
ATOM     48  C   UNL     1       4.141  12.974  21.346  0.00  0.00    +0.000 C 
ATOM     49  C   UNL     1       3.349  14.047  20.875  0.00  0.00    +0.000 C 
ATOM     50  C   UNL     1       4.781  13.847  22.256  0.00  0.00    +0.000 C 
ENDBRANCH   9  44
ENDBRANCH  38   9
ENDBRANCH  32  15
BRANCH  32  33
ATOM     33  C   UNL     1       2.213  17.134  23.462  0.00  0.00    +0.000 C 
ATOM     34  C   UNL     1       1.577  17.879  23.257  0.00  0.00    +0.000 C 
ATOM     35  C   UNL     1       1.439  16.518  23.614  0.00  0.00    +0.000 C 
ATOM     36  C   UNL     1       2.985  17.750  23.310  0.00  0.00    +0.000 C 
ENDBRANCH  32  33
ENDBRANCH  31  32
TORSDOF 14
ENDMDL
MODEL 3
REMARK VINA RESULT:    -7.068      2.551      5.728
REMARK INTER + INTRA:          38.191
REMARK INTER:                 -12.771
REMARK INTRA:                  50.962
REMARK UNBOUND:                51.044
REMARK  Name = 16076883
REMARK  21 active torsions:
REMARK  status: ('A' for Active; 'I' for Inactive)
REMARK    1  A    between atoms: S_2  and  N_13
REMARK    2  A    between atoms: S_2  and  C_21
REMARK    3  A    between atoms: O_7  and  C_28
REMARK    4  A    between atoms: O_7  and  C_37
REMARK    5  A    between atoms: O_9  and  C_38
REMARK    6  A    between atoms: O_9  and  C_44
REMARK    7  A    between atoms: O_11  and  C_43
REMARK    8  A    between atoms: O_11  and  C_51
REMARK    9  A    between atoms: N_12  and  C_17
REMARK   10  A    between atoms: N_15  and  C_32
REMARK   11  A    between atoms: C_17  and  C_20
REMARK   12  A    between atoms: C_18  and  C_22
REMARK   13  A    between atoms: C_25  and  C_26
REMARK   14  A    between atoms: C_31  and  C_32
REMARK   15  A    between atoms: C_32  and  C_33
REMARK   16  A    between atoms: C_33  and  C_34
REMARK   17  A    between atoms: C_33  and  C_35
REMARK   18  A    between atoms: C_33  and  C_36
REMARK   19  A    between atoms: C_44  and  C_48
REMARK   20  A    between atoms: C_44  and  C_49
REMARK   21  A    between atoms: C_44  and  C_50
REMARK                            x       y       z     vdW  Elec       q    Type
REMARK                         _______ _______ _______ _____ _____    ______ ____
ROOT
ATOM      8  O   UNL     1       5.189  13.728  23.083  0.00  0.00    +0.000 OA
ATOM     14  N   UNL     1       4.599  15.105  23.953  0.00  0.00    +0.000 N 
ATOM     25  C   UNL     1       5.456  15.620  23.926  0.00  0.00    +0.000 C 
ATOM     27  C   UNL     1       5.309  16.488  24.401  0.00  0.00    +0.000 C 
ATOM     28  C   UNL     1       4.362  16.509  24.721  0.00  0.00    +0.000 C 
ATOM     29  C   UNL     1       3.924  15.654  24.444  0.00  0.00    +0.000 C 
ATOM     31  C   UNL     1       4.446  14.199  23.557  0.00  0.00    +0.000 C 
ENDROOT
BRANCH  25  26
ATOM      6  O   UNL     1       6.718  14.446  23.759  0.00  0.00    +0.000 OA
ATOM     12  N   UNL     1       6.754  15.896  22.814  0.00  0.00    +0.000 N 
ATOM     26  C   UNL     1       6.309  15.321  23.499  0.00  0.00    +0.000 C 
ATOM     52  H   UNL     1       6.501  16.439  22.652  0.00  0.00    +0.000 HD
BRANCH  12  17
ATOM     17  C   UNL     1       7.608  15.597  22.387  0.00  0.00    +0.000 C 
ATOM     18  C   UNL     1       7.166  15.612  21.491  0.00  0.00    +0.000 C 
ATOM     19  C   UNL     1       8.126  15.345  21.569  0.00  0.00    +0.000 C 
BRANCH  17  20
ATOM      3  O   UNL     1       8.771  14.506  23.064  0.00  0.00    +0.000 OA
ATOM     13  N   UNL     1       8.875  16.201  23.402  0.00  0.00    +0.000 N 
ATOM     20  C   UNL     1       8.417  15.434  22.951  0.00  0.00    +0.000 C 
ATOM     53  H   UNL     1       8.655  16.777  23.332  0.00  0.00    +0.000 HD
BRANCH  13   2
ATOM      2  S   UNL     1       9.684  16.039  23.966  0.00  0.00    +0.000 S 
ATOM      4  O   UNL     1       9.107  15.991  24.782  0.00  0.00    +0.000 OA
ATOM      5  O   UNL     1      10.262  16.087  23.151  0.00  0.00    +0.000 OA
BRANCH   2  21
ATOM     21  C   UNL     1      10.494  15.877  24.531  0.00  0.00    +0.000 C 
ATOM     23  C   UNL     1      11.484  15.930  24.661  0.00  0.00    +0.000 C 
ATOM     24  C   UNL     1      10.906  15.543  25.378  0.00  0.00    +0.000 C 
ENDBRANCH   2  21
ENDBRANCH  13   2
ENDBRANCH  17  20
BRANCH  18  22
ATOM     22  C   UNL     1       6.356  15.775  20.927  0.00  0.00    +0.000 C 
ATOM     30  C   UNL     1       6.339  15.469  19.975  0.00  0.00    +0.000 C 
ENDBRANCH  18  22
ENDBRANCH  12  17
ENDBRANCH  25  26
BRANCH  28   7
ATOM      7  O   UNL     1       3.930  17.254  25.229  0.00  0.00    +0.000 OA
BRANCH   7  37
ATOM      1 CL   UNL     1       1.056  16.630  27.412  0.00  0.00    +0.000 Cl
ATOM     16  N   UNL     1       3.316  18.293  23.988  0.00  0.00    +0.000 NA
ATOM     37  C   UNL     1       3.172  17.763  24.824  0.00  0.00    +0.000 A 
ATOM     39  C   UNL     1       2.269  17.743  25.253  0.00  0.00    +0.000 A 
ATOM     40  C   UNL     1       1.511  18.253  24.847  0.00  0.00    +0.000 A 
ATOM     41  C   UNL     1       2.134  17.187  26.123  0.00  0.00    +0.000 A 
ATOM     42  C   UNL     1       2.558  18.802  23.581  0.00  0.00    +0.000 A 
ATOM     43  C   UNL     1       1.655  18.782  24.011  0.00  0.00    +0.000 A 
ATOM     45  C   UNL     1       0.564  18.241  25.282  0.00  0.00    +0.000 A 
ATOM     46  C   UNL     1       1.196  17.162  26.576  0.00  0.00    +0.000 A 
ATOM     47  C   UNL     1       0.406  17.692  26.153  0.00  0.00    +0.000 A 
BRANCH  43  11
ATOM     11  O   UNL     1       0.896  19.292  23.604  0.00  0.00    +0.000 OA
ATOM     51  C   UNL     1       1.030  19.788  22.746  0.00  0.00    +0.000 C 
ENDBRANCH  43  11
ENDBRANCH   7  37
ENDBRANCH  28   7
BRANCH  31  32
ATOM     32  C   UNL     1       3.549  13.765  23.638  0.00  0.00    +0.000 C 
BRANCH  32  15
ATOM     10  O   UNL     1       3.391  13.600  21.651  0.00  0.00    +0.000 OA
ATOM     15  N   UNL     1       2.759  14.155  23.164  0.00  0.00    +0.000 N 
ATOM     38  C   UNL     1       2.680  14.072  22.171  0.00  0.00    +0.000 C 
ATOM     54  H   UNL     1       2.319  14.448  23.487  0.00  0.00    +0.000 HD
BRANCH  38   9
ATOM      9  O   UNL     1       1.890  14.462  21.698  0.00  0.00    +0.000 OA
BRANCH   9  44
ATOM     44  C   UNL     1       1.923  15.404  21.361  0.00  0.00    +0.000 C 
ATOM     48  C   UNL     1       1.956  16.345  21.025  0.00  0.00    +0.000 C 
ATOM     49  C   UNL     1       1.312  15.689  22.100  0.00  0.00    +0.000 C 
ATOM     50  C   UNL     1       2.534  15.117  20.623  0.00  0.00    +0.000 C 
ENDBRANCH   9  44
ENDBRANCH  38   9
ENDBRANCH  32  15
BRANCH  32  33
ATOM     33  C   UNL     1       3.442  12.939  24.192  0.00  0.00    +0.000 C 
ATOM     34  C   UNL     1       3.334  12.114  24.747  0.00  0.00    +0.000 C 
ATOM     35  C   UNL     1       2.746  13.399  24.744  0.00  0.00    +0.000 C 
ATOM     36  C   UNL     1       4.138  12.479  23.641  0.00  0.00    +0.000 C 
ENDBRANCH  32  33
ENDBRANCH  31  32
TORSDOF 14
ENDMDL
MODEL 4
REMARK VINA RESULT:    -6.942     10.498     14.001
REMARK INTER + INTRA:          38.420
REMARK INTER:                 -12.491
REMARK INTRA:                  50.912
REMARK UNBOUND:                51.044
REMARK  Name = 16076883
REMARK  21 active torsions:
REMARK  status: ('A' for Active; 'I' for Inactive)
REMARK    1  A    between atoms: S_2  and  N_13
REMARK    2  A    between atoms: S_2  and  C_21
REMARK    3  A    between atoms: O_7  and  C_28
REMARK    4  A    between atoms: O_7  and  C_37
REMARK    5  A    between atoms: O_9  and  C_38
REMARK    6  A    between atoms: O_9  and  C_44
REMARK    7  A    between atoms: O_11  and  C_43
REMARK    8  A    between atoms: O_11  and  C_51
REMARK    9  A    between atoms: N_12  and  C_17
REMARK   10  A    between atoms: N_15  and  C_32
REMARK   11  A    between atoms: C_17  and  C_20
REMARK   12  A    between atoms: C_18  and  C_22
REMARK   13  A    between atoms: C_25  and  C_26
REMARK   14  A    between atoms: C_31  and  C_32
REMARK   15  A    between atoms: C_32  and  C_33
REMARK   16  A    between atoms: C_33  and  C_34
REMARK   17  A    between atoms: C_33  and  C_35
REMARK   18  A    between atoms: C_33  and  C_36
REMARK   19  A    between atoms: C_44  and  C_48
REMARK   20  A    between atoms: C_44  and  C_49
REMARK   21  A    between atoms: C_44  and  C_50
REMARK                            x       y       z     vdW  Elec       q    Type
REMARK                         _______ _______ _______ _____ _____    ______ ____
ROOT
ATOM      8  O   UNL     1       6.363  16.037  35.435  0.00  0.00    +0.000 OA
ATOM     14  N   UNL     1       8.077  16.266  35.531  0.00  0.00    +0.000 N 
ATOM     25  C   UNL     1       8.305  15.301  35.657  0.00  0.00    +0.000 C 
ATOM     27  C   UNL     1       9.298  15.225  35.736  0.00  0.00    +0.000 C 
ATOM     28  C   UNL     1       9.685  16.145  35.660  0.00  0.00    +0.000 C 
ATOM     29  C   UNL     1       8.930  16.787  35.533  0.00  0.00    +0.000 C 
ATOM     31  C   UNL     1       7.157  16.644  35.423  0.00  0.00    +0.000 C 
ENDROOT
BRANCH  25  26
ATOM      6  O   UNL     1       6.874  14.587  36.321  0.00  0.00    +0.000 OA
ATOM     12  N   UNL     1       7.781  13.742  35.112  0.00  0.00    +0.000 N 
ATOM     26  C   UNL     1       7.653  14.543  35.696  0.00  0.00    +0.000 C 
ATOM     52  H   UNL     1       8.264  13.715  34.725  0.00  0.00    +0.000 HD
BRANCH  12  17
ATOM     17  C   UNL     1       7.129  12.984  35.152  0.00  0.00    +0.000 C 
ATOM     18  C   UNL     1       6.862  13.165  34.206  0.00  0.00    +0.000 C 
ATOM     19  C   UNL     1       6.431  12.418  34.713  0.00  0.00    +0.000 C 
BRANCH  17  20
ATOM      3  O   UNL     1       6.154  12.409  36.463  0.00  0.00    +0.000 OA
ATOM     13  N   UNL     1       7.823  11.957  36.361  0.00  0.00    +0.000 N 
ATOM     20  C   UNL     1       7.035  12.450  35.992  0.00  0.00    +0.000 C 
ATOM     53  H   UNL     1       8.370  11.983  36.069  0.00  0.00    +0.000 HD
BRANCH  13   2
ATOM      2  S   UNL     1       7.730  11.423  37.201  0.00  0.00    +0.000 S 
ATOM      4  O   UNL     1       8.089  12.192  37.730  0.00  0.00    +0.000 OA
ATOM      5  O   UNL     1       7.371  10.653  36.672  0.00  0.00    +0.000 OA
BRANCH   2  21
ATOM     21  C   UNL     1       7.637  10.888  38.041  0.00  0.00    +0.000 C 
ATOM     23  C   UNL     1       7.747  10.027  38.537  0.00  0.00    +0.000 C 
ATOM     24  C   UNL     1       7.365  10.825  39.001  0.00  0.00    +0.000 C 
ENDBRANCH   2  21
ENDBRANCH  13   2
ENDBRANCH  17  20
BRANCH  18  22
ATOM     22  C   UNL     1       6.957  13.699  33.366  0.00  0.00    +0.000 C 
ATOM     30  C   UNL     1       6.254  13.644  32.656  0.00  0.00    +0.000 C 
ENDBRANCH  18  22
ENDBRANCH  12  17
ENDBRANCH  25  26
BRANCH  28   7
ATOM      7  O   UNL     1      10.657  16.378  35.703  0.00  0.00    +0.000 OA
BRANCH   7  37
ATOM      1 CL   UNL     1      12.320  19.528  36.557  0.00  0.00    +0.000 Cl
ATOM     16  N   UNL     1      11.093  16.090  34.052  0.00  0.00    +0.000 NA
ATOM     37  C   UNL     1      11.142  16.656  34.874  0.00  0.00    +0.000 A 
ATOM     39  C   UNL     1      11.676  17.502  34.868  0.00  0.00    +0.000 A 
ATOM     40  C   UNL     1      12.161  17.780  34.039  0.00  0.00    +0.000 A 
ATOM     41  C   UNL     1      11.718  18.082  35.731  0.00  0.00    +0.000 A 
ATOM     42  C   UNL     1      11.578  16.368  33.223  0.00  0.00    +0.000 A 
ATOM     43  C   UNL     1      12.112  17.213  33.216  0.00  0.00    +0.000 A 
ATOM     45  C   UNL     1      12.722  18.658  34.016  0.00  0.00    +0.000 A 
ATOM     46  C   UNL     1      12.273  18.964  35.732  0.00  0.00    +0.000 A 
ATOM     47  C   UNL     1      12.778  19.253  34.869  0.00  0.00    +0.000 A 
BRANCH  43  11
ATOM     11  O   UNL     1      12.598  17.492  32.387  0.00  0.00    +0.000 OA
ATOM     51  C   UNL     1      12.149  17.416  31.496  0.00  0.00    +0.000 C 
ENDBRANCH  43  11
ENDBRANCH   7  37
ENDBRANCH  28   7
BRANCH  31  32
ATOM     32  C   UNL     1       7.033  17.628  35.302  0.00  0.00    +0.000 C 
BRANCH  32  15
ATOM     10  O   UNL     1       6.096  17.457  33.543  0.00  0.00    +0.000 OA
ATOM     15  N   UNL     1       7.402  18.085  34.492  0.00  0.00    +0.000 N 
ATOM     38  C   UNL     1       6.933  17.999  33.612  0.00  0.00    +0.000 C 
ATOM     54  H   UNL     1       7.921  18.421  34.534  0.00  0.00    +0.000 HD
BRANCH  38   9
ATOM      9  O   UNL     1       7.301  18.455  32.803  0.00  0.00    +0.000 OA
BRANCH   9  44
ATOM     44  C   UNL     1       7.913  17.960  32.184  0.00  0.00    +0.000 C 
ATOM     48  C   UNL     1       8.524  17.466  31.566  0.00  0.00    +0.000 C 
ATOM     49  C   UNL     1       8.678  18.529  32.487  0.00  0.00    +0.000 C 
ATOM     50  C   UNL     1       7.147  17.392  31.883  0.00  0.00    +0.000 C 
ENDBRANCH   9  44
ENDBRANCH  38   9
ENDBRANCH  32  15
BRANCH  32  33
ATOM     33  C   UNL     1       6.540  18.158  35.993  0.00  0.00    +0.000 C 
ATOM     34  C   UNL     1       6.048  18.688  36.684  0.00  0.00    +0.000 C 
ATOM     35  C   UNL     1       7.365  18.697  36.169  0.00  0.00    +0.000 C 
ATOM     36  C   UNL     1       5.716  17.620  35.817  0.00  0.00    +0.000 C 
ENDBRANCH  32  33
ENDBRANCH  31  32
TORSDOF 14
ENDMDL
MODEL 5
REMARK VINA RESULT:    -6.904      3.488      6.726
REMARK INTER + INTRA:          38.489
REMARK INTER:                 -13.564
REMARK INTRA:                  52.053
REMARK UNBOUND:                51.044
REMARK  Name = 16076883
REMARK  21 active torsions:
REMARK  status: ('A' for Active; 'I' for Inactive)
REMARK    1  A    between atoms: S_2  and  N_13
REMARK    2  A    between atoms: S_2  and  C_21
REMARK    3  A    between atoms: O_7  and  C_28
REMARK    4  A    between atoms: O_7  and  C_37
REMARK    5  A    between atoms: O_9  and  C_38
REMARK    6  A    between atoms: O_9  and  C_44
REMARK    7  A    between atoms: O_11  and  C_43
REMARK    8  A    between atoms: O_11  and  C_51
REMARK    9  A    between atoms: N_12  and  C_17
REMARK   10  A    between atoms: N_15  and  C_32
REMARK   11  A    between atoms: C_17  and  C_20
REMARK   12  A    between atoms: C_18  and  C_22
REMARK   13  A    between atoms: C_25  and  C_26
REMARK   14  A    between atoms: C_31  and  C_32
REMARK   15  A    between atoms: C_32  and  C_33
REMARK   16  A    between atoms: C_33  and  C_34
REMARK   17  A    between atoms: C_33  and  C_35
REMARK   18  A    between atoms: C_33  and  C_36
REMARK   19  A    between atoms: C_44  and  C_48
REMARK   20  A    between atoms: C_44  and  C_49
REMARK   21  A    between atoms: C_44  and  C_50
REMARK                            x       y       z     vdW  Elec       q    Type
REMARK                         _______ _______ _______ _____ _____    ______ ____
ROOT
ATOM      8  O   UNL     1       5.246  16.246  25.375  0.00  0.00    +0.000 OA
ATOM     14  N   UNL     1       6.580  15.506  24.555  0.00  0.00    +0.000 N 
ATOM     25  C   UNL     1       6.026  14.946  23.938  0.00  0.00    +0.000 C 
ATOM     27  C   UNL     1       6.647  14.421  23.357  0.00  0.00    +0.000 C 
ATOM     28  C   UNL     1       7.585  14.655  23.614  0.00  0.00    +0.000 C 
ATOM     29  C   UNL     1       7.543  15.326  24.355  0.00  0.00    +0.000 C 
ATOM     31  C   UNL     1       6.232  16.135  25.251  0.00  0.00    +0.000 C 
ENDROOT
BRANCH  25  26
ATOM      6  O   UNL     1       4.506  15.764  23.803  0.00  0.00    +0.000 OA
ATOM     12  N   UNL     1       4.549  14.043  23.984  0.00  0.00    +0.000 N 
ATOM     26  C   UNL     1       5.027  14.918  23.908  0.00  0.00    +0.000 C 
ATOM     52  H   UNL     1       4.872  13.517  24.049  0.00  0.00    +0.000 HD
BRANCH  12  17
ATOM     17  C   UNL     1       3.550  14.014  23.953  0.00  0.00    +0.000 C 
ATOM     18  C   UNL     1       3.586  13.793  22.979  0.00  0.00    +0.000 C 
ATOM     19  C   UNL     1       2.702  13.879  23.440  0.00  0.00    +0.000 C 
BRANCH  17  20
ATOM      3  O   UNL     1       2.243  14.820  24.756  0.00  0.00    +0.000 OA
ATOM     13  N   UNL     1       3.268  13.739  25.640  0.00  0.00    +0.000 N 
ATOM     20  C   UNL     1       3.020  14.191  24.783  0.00  0.00    +0.000 C 
ATOM     53  H   UNL     1       3.750  13.349  25.656  0.00  0.00    +0.000 HD
BRANCH  13   2
ATOM      2  S   UNL     1       2.738  13.915  26.470  0.00  0.00    +0.000 S 
ATOM      4  O   UNL     1       3.261  14.754  26.625  0.00  0.00    +0.000 OA
ATOM      5  O   UNL     1       2.216  13.077  26.315  0.00  0.00    +0.000 OA
BRANCH   2  21
ATOM     21  C   UNL     1       2.209  14.092  27.300  0.00  0.00    +0.000 C 
ATOM     23  C   UNL     1       1.374  13.972  27.836  0.00  0.00    +0.000 C 
ATOM     24  C   UNL     1       2.129  14.517  28.201  0.00  0.00    +0.000 C 
ENDBRANCH   2  21
ENDBRANCH  13   2
ENDBRANCH  17  20
BRANCH  18  22
ATOM     22  C   UNL     1       4.116  13.616  22.150  0.00  0.00    +0.000 C 
ATOM     30  C   UNL     1       3.658  13.283  21.325  0.00  0.00    +0.000 C 
ENDBRANCH  18  22
ENDBRANCH  12  17
ENDBRANCH  25  26
BRANCH  28   7
ATOM      7  O   UNL     1       8.417  14.284  23.202  0.00  0.00    +0.000 OA
BRANCH   7  37
ATOM      1 CL   UNL     1       9.400  15.466  19.878  0.00  0.00    +0.000 Cl
ATOM     16  N   UNL     1       9.697  14.804  24.246  0.00  0.00    +0.000 NA
ATOM     37  C   UNL     1       9.291  14.750  23.333  0.00  0.00    +0.000 A 
ATOM     39  C   UNL     1       9.760  15.161  22.552  0.00  0.00    +0.000 A 
ATOM     40  C   UNL     1      10.635  15.627  22.683  0.00  0.00    +0.000 A 
ATOM     41  C   UNL     1       9.326  15.096  21.608  0.00  0.00    +0.000 A 
ATOM     42  C   UNL     1      10.572  15.270  24.377  0.00  0.00    +0.000 A 
ATOM     43  C   UNL     1      11.041  15.682  23.596  0.00  0.00    +0.000 A 
ATOM     45  C   UNL     1      11.136  16.061  21.879  0.00  0.00    +0.000 A 
ATOM     46  C   UNL     1       9.809  15.523  20.789  0.00  0.00    +0.000 A 
ATOM     47  C   UNL     1      10.720  16.008  20.926  0.00  0.00    +0.000 A 
BRANCH  43  11
ATOM     11  O   UNL     1      11.917  16.149  23.727  0.00  0.00    +0.000 OA
ATOM     51  C   UNL     1      12.271  16.297  24.650  0.00  0.00    +0.000 C 
ENDBRANCH  43  11
ENDBRANCH   7  37
ENDBRANCH  28   7
BRANCH  31  32
ATOM     32  C   UNL     1       6.870  16.652  25.820  0.00  0.00    +0.000 C 
BRANCH  32  15
ATOM     10  O   UNL     1       6.206  18.446  25.236  0.00  0.00    +0.000 OA
ATOM     15  N   UNL     1       7.499  17.307  25.401  0.00  0.00    +0.000 N 
ATOM     38  C   UNL     1       7.167  18.204  25.108  0.00  0.00    +0.000 C 
ATOM     54  H   UNL     1       8.095  17.156  25.322  0.00  0.00    +0.000 HD
BRANCH  38   9
ATOM      9  O   UNL     1       7.796  18.858  24.689  0.00  0.00    +0.000 OA
BRANCH   9  44
ATOM     44  C   UNL     1       8.066  18.750  23.732  0.00  0.00    +0.000 C 
ATOM     48  C   UNL     1       8.336  18.642  22.775  0.00  0.00    +0.000 C 
ATOM     49  C   UNL     1       9.006  18.562  24.019  0.00  0.00    +0.000 C 
ATOM     50  C   UNL     1       7.127  18.938  23.447  0.00  0.00    +0.000 C 
ENDBRANCH   9  44
ENDBRANCH  38   9
ENDBRANCH  32  15
BRANCH  32  33
ATOM     33  C   UNL     1       6.879  16.515  26.811  0.00  0.00    +0.000 C 
ATOM     34  C   UNL     1       6.887  16.378  27.802  0.00  0.00    +0.000 C 
ATOM     35  C   UNL     1       5.918  16.791  26.858  0.00  0.00    +0.000 C 
ATOM     36  C   UNL     1       7.838  16.238  26.763  0.00  0.00    +0.000 C 
ENDBRANCH  32  33
ENDBRANCH  31  32
TORSDOF 14
ENDMDL
